Circuit: * Z:\home\sam\FS\FS_LAB1\Draft.asc

Warning: toxe, toxp and dtox all given and toxe != toxp + dtox; dtox ignored.
Warning: toxe, toxp and dtox all given and toxe != toxp + dtox; dtox ignored.
Direct Newton iteration for .op point succeeded.

Date: Sun Mar 24 18:35:25 2024
Total elapsed time: 0.199 seconds.

tnom = 27
temp = 27
method = modified trap
totiter = 16173
traniter = 16168
tranpoints = 8076
accept = 8068
rejected = 8
matrix size = 13
fillins = 0
solver = Normal
Avg thread counts: 1.0/1.1/1.1/1.0
Matrix Compiler1: 978 bytes object code size  0.2/0.2/[0.2]
Matrix Compiler2: 1.32 KB object code size  0.2/0.3/[0.2]

