Circuit: * Z:\home\sam\FS\FS_LAB1\nandtest.asc

WARNING: Node X1:N003 is floating.
WARNING: Node X1:N005 is floating.
WARNING: Node X1:N001 is floating.
WARNING: Node X1:N002 is floating.

WARNING: Less than two connections to node x1:n003.  This node is used by m:x1:3.
WARNING: Less than two connections to node x1:n005.  This node is used by m:x1:4.
WARNING: Less than two connections to node x1:n001.  This node is used by m:x1:1.
WARNING: Less than two connections to node x1:n002.  This node is used by m:x1:2.
Warning: toxe, toxp and dtox all given and toxe != toxp + dtox; dtox ignored.
Warning: toxe, toxp and dtox all given and toxe != toxp + dtox; dtox ignored.
Direct Newton iteration for .op point succeeded.

Date: Tue Mar 26 15:42:55 2024
Total elapsed time: 0.975 seconds.

tnom = 27
temp = 27
method = modified trap
totiter = 32328
traniter = 32312
tranpoints = 16108
accept = 16092
rejected = 16
matrix size = 28
fillins = 18
solver = Normal
Avg thread counts: 1.0/1.0/1.0/1.0
Matrix Compiler1: 3.99 KB object code size  1.9/1.2/[0.8]
Matrix Compiler2: 3.48 KB object code size  0.7/1.3/[0.7]

